[General]
network = TestScenario

record-eventlog = false 
debug-on-errors = true
result-dir = results_gating
sim-time-limit = 1s

# debug
**.displayAddresses = true
**.verbose = true

# MAC Addresses
**.robotController.eth.address = "00-00-00-00-00-01"
**.workstation1.eth.address = "00-00-00-00-00-02"
**.workstation2.eth.address = "00-00-00-00-00-03"
**.roboticArm.eth.address = "00-00-00-00-00-04"
**.backupServer.eth.address	= "00-00-00-00-00-05"

# Switches
**.switch*.processingDelay.delay = 5us
**.filteringDatabase.database = xmldoc("xml/TestScenarioRouting.xml", "/filteringDatabases/")

**.switchA.eth[3].queue.gateController.initialSchedule = xmldoc("xml/TestScenarioSchedule_GatingOn.xml", "/schedules/switch[@name='switchA']/port[@id='3']/schedule")
**.switchB.eth[0].queue.gateController.initialSchedule = xmldoc("xml/TestScenarioSchedule_GatingOn.xml", "/schedules/switch[@name='switchB']/port[@id='0']/schedule")
#**.switch*.eth[*].queue.gateController.enableHoldAndRelease = false
**.switch*.eth[*].queue.numberOfQueues = 8
**.switch*.eth[*].queue.tsAlgorithms[0].typename = "StrictPriority"
**.switch*.eth[*].queue.tsAlgorithms[1].typename = "StrictPriority"
**.switch*.eth[*].queue.tsAlgorithms[2].typename = "StrictPriority"
**.switch*.eth[*].queue.tsAlgorithms[3].typename = "StrictPriority"
**.switch*.eth[*].queue.tsAlgorithms[4].typename = "StrictPriority"
**.switch*.eth[*].queue.tsAlgorithms[5].typename = "StrictPriority"
**.switch*.eth[*].queue.tsAlgorithms[6].typename = "StrictPriority"
**.switch*.eth[*].queue.tsAlgorithms[7].typename = "StrictPriority"
#**.switch*.eth[*].queue.queues[0].expressQueue = true
#**.switch*.eth[*].queue.queues[1].expressQueue = true
#**.switch*.eth[*].queue.queues[2].expressQueue = true
#**.switch*.eth[*].queue.queues[3].expressQueue = true
#**.switch*.eth[*].queue.queues[4].expressQueue = true
#**.switch*.eth[*].queue.queues[5].expressQueue = true
#**.switch*.eth[*].queue.queues[6].expressQueue = true
#**.switch*.eth[*].queue.queues[7].expressQueue = true

**.queues[*].bufferCapacity = 363360b

**.switchA.eth[3].mac.enablePreemptingFrames = false

# Schedule/Routing Swap
#**.scheduleSwap.schedule = xmldoc("xml/TestScenarioScheduleSwap.xml")

# Robot Controller
**.robotController.trafGenSchedApp.initialSchedule = xmldoc("xml/TestScenarioSchedule_GatingOn.xml")

# Workstations
**.workstation*.trafGenApp.destAddress = "00-00-00-00-00-05"
**.workstation*.trafGenApp.packetLength = 1500Byte-4Byte # MTU-Size - VLAN-Tag-Size
**.workstation*.trafGenApp.sendInterval = 12us
**.workstation*.trafGenApp.vlanTagEnabled = true
**.workstation1.trafGenApp.pcp = 6
**.workstation2.trafGenApp.pcp = 5

# Robotic Arms
**.roboticArm.trafGenApp.numPacketsPerBurst = 0
**.roboticArm.trafGenApp.sendInterval = 1ms
**.roboticArm.trafGenApp.packetLength = 100B

# Backup Server
**.backupServer.trafGenApp.numPacketsPerBurst = 0
**.backupServer.trafGenApp.sendInterval = 1ms
**.backupServer.trafGenApp.packetLength = 100B
